
---------- Begin Simulation Statistics ----------
sim_seconds                                  0.000096                       # Number of seconds simulated
sim_ticks                                    96425000                       # Number of ticks simulated
final_tick                                   96425000                       # Number of ticks from beginning of simulation (restored from checkpoints and never reset)
sim_freq                                 1000000000000                       # Frequency of simulated ticks
host_inst_rate                                 113033                       # Simulator instruction rate (inst/s)
host_op_rate                                   232251                       # Simulator op (including micro ops) rate (op/s)
host_tick_rate                              202697704                       # Simulator tick rate (ticks/s)
host_mem_usage                                8534236                       # Number of bytes of host memory used
host_seconds                                     0.48                       # Real time elapsed on the host
sim_insts                                       53769                       # Number of instructions simulated
sim_ops                                        110482                       # Number of ops (including micro ops) simulated
system.voltage_domain.voltage                       1                       # Voltage in Volts
system.clk_domain.clock                          1000                       # Clock period in ticks
system.mem_ctrls0.pwrStateResidencyTicks::UNDEFINED     96425000                       # Cumulative time (in ticks) in various power states
system.mem_ctrls0.bytes_read::.cpu.inst         31040                       # Number of bytes read from this memory
system.mem_ctrls0.bytes_read::.cpu.data         14400                       # Number of bytes read from this memory
system.mem_ctrls0.bytes_read::total             45440                       # Number of bytes read from this memory
system.mem_ctrls0.bytes_inst_read::.cpu.inst        31040                       # Number of instructions bytes read from this memory
system.mem_ctrls0.bytes_inst_read::total        31040                       # Number of instructions bytes read from this memory
system.mem_ctrls0.num_reads::.cpu.inst            485                       # Number of read requests responded to by this memory
system.mem_ctrls0.num_reads::.cpu.data            225                       # Number of read requests responded to by this memory
system.mem_ctrls0.num_reads::total                710                       # Number of read requests responded to by this memory
system.mem_ctrls0.bw_read::.cpu.inst        321908219                       # Total read bandwidth from this memory (bytes/s)
system.mem_ctrls0.bw_read::.cpu.data        149338864                       # Total read bandwidth from this memory (bytes/s)
system.mem_ctrls0.bw_read::total            471247083                       # Total read bandwidth from this memory (bytes/s)
system.mem_ctrls0.bw_inst_read::.cpu.inst    321908219                       # Instruction read bandwidth from this memory (bytes/s)
system.mem_ctrls0.bw_inst_read::total       321908219                       # Instruction read bandwidth from this memory (bytes/s)
system.mem_ctrls0.bw_total::.cpu.inst       321908219                       # Total bandwidth to/from this memory (bytes/s)
system.mem_ctrls0.bw_total::.cpu.data       149338864                       # Total bandwidth to/from this memory (bytes/s)
system.mem_ctrls0.bw_total::total           471247083                       # Total bandwidth to/from this memory (bytes/s)
system.mem_ctrls0.avgPriority_.cpu.inst::samples       485.00                       # Average QoS priority value for accepted requests
system.mem_ctrls0.avgPriority_.cpu.data::samples       225.00                       # Average QoS priority value for accepted requests
system.mem_ctrls0.priorityMinLatency     0.000000017492                       # per QoS priority minimum request to response latency (s)
system.mem_ctrls0.priorityMaxLatency     0.000000759205                       # per QoS priority maximum request to response latency (s)
system.mem_ctrls0.numReadWriteTurnArounds            0                       # Number of turnarounds from READ to WRITE
system.mem_ctrls0.numWriteReadTurnArounds            0                       # Number of turnarounds from WRITE to READ
system.mem_ctrls0.numStayReadState               1438                       # Number of times bus staying in READ state
system.mem_ctrls0.numStayWriteState                 0                       # Number of times bus staying in WRITE state
system.mem_ctrls0.readReqs                        710                       # Number of read requests accepted
system.mem_ctrls0.writeReqs                         0                       # Number of write requests accepted
system.mem_ctrls0.readBursts                      710                       # Number of DRAM read bursts, including those serviced by the write queue
system.mem_ctrls0.writeBursts                       0                       # Number of DRAM write bursts, including those merged in the write queue
system.mem_ctrls0.bytesReadDRAM                 45440                       # Total number of bytes read from DRAM
system.mem_ctrls0.bytesReadWrQ                      0                       # Total number of bytes read from write queue
system.mem_ctrls0.bytesWritten                      0                       # Total number of bytes written to DRAM
system.mem_ctrls0.bytesReadSys                  45440                       # Total read bytes from the system interface side
system.mem_ctrls0.bytesWrittenSys                   0                       # Total written bytes from the system interface side
system.mem_ctrls0.servicedByWrQ                     0                       # Number of DRAM read bursts serviced by the write queue
system.mem_ctrls0.mergedWrBursts                    0                       # Number of DRAM write bursts merged with an existing one
system.mem_ctrls0.neitherReadNorWriteReqs            0                       # Number of requests that are neither read nor write
system.mem_ctrls0.perBankRdBursts::0               64                       # Per bank write bursts
system.mem_ctrls0.perBankRdBursts::1               26                       # Per bank write bursts
system.mem_ctrls0.perBankRdBursts::2                2                       # Per bank write bursts
system.mem_ctrls0.perBankRdBursts::3                2                       # Per bank write bursts
system.mem_ctrls0.perBankRdBursts::4               13                       # Per bank write bursts
system.mem_ctrls0.perBankRdBursts::5               30                       # Per bank write bursts
system.mem_ctrls0.perBankRdBursts::6               32                       # Per bank write bursts
system.mem_ctrls0.perBankRdBursts::7               14                       # Per bank write bursts
system.mem_ctrls0.perBankRdBursts::8                1                       # Per bank write bursts
system.mem_ctrls0.perBankRdBursts::9                0                       # Per bank write bursts
system.mem_ctrls0.perBankRdBursts::10              13                       # Per bank write bursts
system.mem_ctrls0.perBankRdBursts::11               3                       # Per bank write bursts
system.mem_ctrls0.perBankRdBursts::12               7                       # Per bank write bursts
system.mem_ctrls0.perBankRdBursts::13              17                       # Per bank write bursts
system.mem_ctrls0.perBankRdBursts::14              72                       # Per bank write bursts
system.mem_ctrls0.perBankRdBursts::15             110                       # Per bank write bursts
system.mem_ctrls0.perBankRdBursts::16              56                       # Per bank write bursts
system.mem_ctrls0.perBankRdBursts::17              55                       # Per bank write bursts
system.mem_ctrls0.perBankRdBursts::18              85                       # Per bank write bursts
system.mem_ctrls0.perBankRdBursts::19              38                       # Per bank write bursts
system.mem_ctrls0.perBankRdBursts::20              34                       # Per bank write bursts
system.mem_ctrls0.perBankRdBursts::21               3                       # Per bank write bursts
system.mem_ctrls0.perBankRdBursts::22               0                       # Per bank write bursts
system.mem_ctrls0.perBankRdBursts::23               6                       # Per bank write bursts
system.mem_ctrls0.perBankRdBursts::24               5                       # Per bank write bursts
system.mem_ctrls0.perBankRdBursts::25               4                       # Per bank write bursts
system.mem_ctrls0.perBankRdBursts::26               5                       # Per bank write bursts
system.mem_ctrls0.perBankRdBursts::27               6                       # Per bank write bursts
system.mem_ctrls0.perBankRdBursts::28               0                       # Per bank write bursts
system.mem_ctrls0.perBankRdBursts::29               0                       # Per bank write bursts
system.mem_ctrls0.perBankRdBursts::30               3                       # Per bank write bursts
system.mem_ctrls0.perBankRdBursts::31               4                       # Per bank write bursts
system.mem_ctrls0.perBankWrBursts::0                0                       # Per bank write bursts
system.mem_ctrls0.perBankWrBursts::1                0                       # Per bank write bursts
system.mem_ctrls0.perBankWrBursts::2                0                       # Per bank write bursts
system.mem_ctrls0.perBankWrBursts::3                0                       # Per bank write bursts
system.mem_ctrls0.perBankWrBursts::4                0                       # Per bank write bursts
system.mem_ctrls0.perBankWrBursts::5                0                       # Per bank write bursts
system.mem_ctrls0.perBankWrBursts::6                0                       # Per bank write bursts
system.mem_ctrls0.perBankWrBursts::7                0                       # Per bank write bursts
system.mem_ctrls0.perBankWrBursts::8                0                       # Per bank write bursts
system.mem_ctrls0.perBankWrBursts::9                0                       # Per bank write bursts
system.mem_ctrls0.perBankWrBursts::10               0                       # Per bank write bursts
system.mem_ctrls0.perBankWrBursts::11               0                       # Per bank write bursts
system.mem_ctrls0.perBankWrBursts::12               0                       # Per bank write bursts
system.mem_ctrls0.perBankWrBursts::13               0                       # Per bank write bursts
system.mem_ctrls0.perBankWrBursts::14               0                       # Per bank write bursts
system.mem_ctrls0.perBankWrBursts::15               0                       # Per bank write bursts
system.mem_ctrls0.perBankWrBursts::16               0                       # Per bank write bursts
system.mem_ctrls0.perBankWrBursts::17               0                       # Per bank write bursts
system.mem_ctrls0.perBankWrBursts::18               0                       # Per bank write bursts
system.mem_ctrls0.perBankWrBursts::19               0                       # Per bank write bursts
system.mem_ctrls0.perBankWrBursts::20               0                       # Per bank write bursts
system.mem_ctrls0.perBankWrBursts::21               0                       # Per bank write bursts
system.mem_ctrls0.perBankWrBursts::22               0                       # Per bank write bursts
system.mem_ctrls0.perBankWrBursts::23               0                       # Per bank write bursts
system.mem_ctrls0.perBankWrBursts::24               0                       # Per bank write bursts
system.mem_ctrls0.perBankWrBursts::25               0                       # Per bank write bursts
system.mem_ctrls0.perBankWrBursts::26               0                       # Per bank write bursts
system.mem_ctrls0.perBankWrBursts::27               0                       # Per bank write bursts
system.mem_ctrls0.perBankWrBursts::28               0                       # Per bank write bursts
system.mem_ctrls0.perBankWrBursts::29               0                       # Per bank write bursts
system.mem_ctrls0.perBankWrBursts::30               0                       # Per bank write bursts
system.mem_ctrls0.perBankWrBursts::31               0                       # Per bank write bursts
system.mem_ctrls0.numRdRetry                        0                       # Number of times read queue was full causing retry
system.mem_ctrls0.numWrRetry                        0                       # Number of times write queue was full causing retry
system.mem_ctrls0.totGap                     96323500                       # Total gap between requests
system.mem_ctrls0.readPktSize::0                    0                       # Read request sizes (log2)
system.mem_ctrls0.readPktSize::1                    0                       # Read request sizes (log2)
system.mem_ctrls0.readPktSize::2                    0                       # Read request sizes (log2)
system.mem_ctrls0.readPktSize::3                    0                       # Read request sizes (log2)
system.mem_ctrls0.readPktSize::4                    0                       # Read request sizes (log2)
system.mem_ctrls0.readPktSize::5                    0                       # Read request sizes (log2)
system.mem_ctrls0.readPktSize::6                  710                       # Read request sizes (log2)
system.mem_ctrls0.writePktSize::0                   0                       # Write request sizes (log2)
system.mem_ctrls0.writePktSize::1                   0                       # Write request sizes (log2)
system.mem_ctrls0.writePktSize::2                   0                       # Write request sizes (log2)
system.mem_ctrls0.writePktSize::3                   0                       # Write request sizes (log2)
system.mem_ctrls0.writePktSize::4                   0                       # Write request sizes (log2)
system.mem_ctrls0.writePktSize::5                   0                       # Write request sizes (log2)
system.mem_ctrls0.writePktSize::6                   0                       # Write request sizes (log2)
system.mem_ctrls0.rdQLenPdf::0                    564                       # What read queue length does an incoming req see
system.mem_ctrls0.rdQLenPdf::1                    127                       # What read queue length does an incoming req see
system.mem_ctrls0.rdQLenPdf::2                     17                       # What read queue length does an incoming req see
system.mem_ctrls0.rdQLenPdf::3                      2                       # What read queue length does an incoming req see
system.mem_ctrls0.rdQLenPdf::4                      0                       # What read queue length does an incoming req see
system.mem_ctrls0.rdQLenPdf::5                      0                       # What read queue length does an incoming req see
system.mem_ctrls0.rdQLenPdf::6                      0                       # What read queue length does an incoming req see
system.mem_ctrls0.rdQLenPdf::7                      0                       # What read queue length does an incoming req see
system.mem_ctrls0.rdQLenPdf::8                      0                       # What read queue length does an incoming req see
system.mem_ctrls0.rdQLenPdf::9                      0                       # What read queue length does an incoming req see
system.mem_ctrls0.rdQLenPdf::10                     0                       # What read queue length does an incoming req see
system.mem_ctrls0.rdQLenPdf::11                     0                       # What read queue length does an incoming req see
system.mem_ctrls0.rdQLenPdf::12                     0                       # What read queue length does an incoming req see
system.mem_ctrls0.rdQLenPdf::13                     0                       # What read queue length does an incoming req see
system.mem_ctrls0.rdQLenPdf::14                     0                       # What read queue length does an incoming req see
system.mem_ctrls0.rdQLenPdf::15                     0                       # What read queue length does an incoming req see
system.mem_ctrls0.rdQLenPdf::16                     0                       # What read queue length does an incoming req see
system.mem_ctrls0.rdQLenPdf::17                     0                       # What read queue length does an incoming req see
system.mem_ctrls0.rdQLenPdf::18                     0                       # What read queue length does an incoming req see
system.mem_ctrls0.rdQLenPdf::19                     0                       # What read queue length does an incoming req see
system.mem_ctrls0.rdQLenPdf::20                     0                       # What read queue length does an incoming req see
system.mem_ctrls0.rdQLenPdf::21                     0                       # What read queue length does an incoming req see
system.mem_ctrls0.rdQLenPdf::22                     0                       # What read queue length does an incoming req see
system.mem_ctrls0.rdQLenPdf::23                     0                       # What read queue length does an incoming req see
system.mem_ctrls0.rdQLenPdf::24                     0                       # What read queue length does an incoming req see
system.mem_ctrls0.rdQLenPdf::25                     0                       # What read queue length does an incoming req see
system.mem_ctrls0.rdQLenPdf::26                     0                       # What read queue length does an incoming req see
system.mem_ctrls0.rdQLenPdf::27                     0                       # What read queue length does an incoming req see
system.mem_ctrls0.rdQLenPdf::28                     0                       # What read queue length does an incoming req see
system.mem_ctrls0.rdQLenPdf::29                     0                       # What read queue length does an incoming req see
system.mem_ctrls0.rdQLenPdf::30                     0                       # What read queue length does an incoming req see
system.mem_ctrls0.rdQLenPdf::31                     0                       # What read queue length does an incoming req see
system.mem_ctrls0.rdQLenPdf::32                     0                       # What read queue length does an incoming req see
system.mem_ctrls0.rdQLenPdf::33                     0                       # What read queue length does an incoming req see
system.mem_ctrls0.rdQLenPdf::34                     0                       # What read queue length does an incoming req see
system.mem_ctrls0.rdQLenPdf::35                     0                       # What read queue length does an incoming req see
system.mem_ctrls0.rdQLenPdf::36                     0                       # What read queue length does an incoming req see
system.mem_ctrls0.rdQLenPdf::37                     0                       # What read queue length does an incoming req see
system.mem_ctrls0.rdQLenPdf::38                     0                       # What read queue length does an incoming req see
system.mem_ctrls0.rdQLenPdf::39                     0                       # What read queue length does an incoming req see
system.mem_ctrls0.rdQLenPdf::40                     0                       # What read queue length does an incoming req see
system.mem_ctrls0.rdQLenPdf::41                     0                       # What read queue length does an incoming req see
system.mem_ctrls0.rdQLenPdf::42                     0                       # What read queue length does an incoming req see
system.mem_ctrls0.rdQLenPdf::43                     0                       # What read queue length does an incoming req see
system.mem_ctrls0.rdQLenPdf::44                     0                       # What read queue length does an incoming req see
system.mem_ctrls0.rdQLenPdf::45                     0                       # What read queue length does an incoming req see
system.mem_ctrls0.rdQLenPdf::46                     0                       # What read queue length does an incoming req see
system.mem_ctrls0.rdQLenPdf::47                     0                       # What read queue length does an incoming req see
system.mem_ctrls0.rdQLenPdf::48                     0                       # What read queue length does an incoming req see
system.mem_ctrls0.rdQLenPdf::49                     0                       # What read queue length does an incoming req see
system.mem_ctrls0.rdQLenPdf::50                     0                       # What read queue length does an incoming req see
system.mem_ctrls0.rdQLenPdf::51                     0                       # What read queue length does an incoming req see
system.mem_ctrls0.rdQLenPdf::52                     0                       # What read queue length does an incoming req see
system.mem_ctrls0.rdQLenPdf::53                     0                       # What read queue length does an incoming req see
system.mem_ctrls0.rdQLenPdf::54                     0                       # What read queue length does an incoming req see
system.mem_ctrls0.rdQLenPdf::55                     0                       # What read queue length does an incoming req see
system.mem_ctrls0.rdQLenPdf::56                     0                       # What read queue length does an incoming req see
system.mem_ctrls0.rdQLenPdf::57                     0                       # What read queue length does an incoming req see
system.mem_ctrls0.rdQLenPdf::58                     0                       # What read queue length does an incoming req see
system.mem_ctrls0.rdQLenPdf::59                     0                       # What read queue length does an incoming req see
system.mem_ctrls0.rdQLenPdf::60                     0                       # What read queue length does an incoming req see
system.mem_ctrls0.rdQLenPdf::61                     0                       # What read queue length does an incoming req see
system.mem_ctrls0.rdQLenPdf::62                     0                       # What read queue length does an incoming req see
system.mem_ctrls0.rdQLenPdf::63                     0                       # What read queue length does an incoming req see
system.mem_ctrls0.wrQLenPdf::0                      0                       # What write queue length does an incoming req see
system.mem_ctrls0.wrQLenPdf::1                      0                       # What write queue length does an incoming req see
system.mem_ctrls0.wrQLenPdf::2                      0                       # What write queue length does an incoming req see
system.mem_ctrls0.wrQLenPdf::3                      0                       # What write queue length does an incoming req see
system.mem_ctrls0.wrQLenPdf::4                      0                       # What write queue length does an incoming req see
system.mem_ctrls0.wrQLenPdf::5                      0                       # What write queue length does an incoming req see
system.mem_ctrls0.wrQLenPdf::6                      0                       # What write queue length does an incoming req see
system.mem_ctrls0.wrQLenPdf::7                      0                       # What write queue length does an incoming req see
system.mem_ctrls0.wrQLenPdf::8                      0                       # What write queue length does an incoming req see
system.mem_ctrls0.wrQLenPdf::9                      0                       # What write queue length does an incoming req see
system.mem_ctrls0.wrQLenPdf::10                     0                       # What write queue length does an incoming req see
system.mem_ctrls0.wrQLenPdf::11                     0                       # What write queue length does an incoming req see
system.mem_ctrls0.wrQLenPdf::12                     0                       # What write queue length does an incoming req see
system.mem_ctrls0.wrQLenPdf::13                     0                       # What write queue length does an incoming req see
system.mem_ctrls0.wrQLenPdf::14                     0                       # What write queue length does an incoming req see
system.mem_ctrls0.wrQLenPdf::15                     0                       # What write queue length does an incoming req see
system.mem_ctrls0.wrQLenPdf::16                     0                       # What write queue length does an incoming req see
system.mem_ctrls0.wrQLenPdf::17                     0                       # What write queue length does an incoming req see
system.mem_ctrls0.wrQLenPdf::18                     0                       # What write queue length does an incoming req see
system.mem_ctrls0.wrQLenPdf::19                     0                       # What write queue length does an incoming req see
system.mem_ctrls0.wrQLenPdf::20                     0                       # What write queue length does an incoming req see
system.mem_ctrls0.wrQLenPdf::21                     0                       # What write queue length does an incoming req see
system.mem_ctrls0.wrQLenPdf::22                     0                       # What write queue length does an incoming req see
system.mem_ctrls0.wrQLenPdf::23                     0                       # What write queue length does an incoming req see
system.mem_ctrls0.wrQLenPdf::24                     0                       # What write queue length does an incoming req see
system.mem_ctrls0.wrQLenPdf::25                     0                       # What write queue length does an incoming req see
system.mem_ctrls0.wrQLenPdf::26                     0                       # What write queue length does an incoming req see
system.mem_ctrls0.wrQLenPdf::27                     0                       # What write queue length does an incoming req see
system.mem_ctrls0.wrQLenPdf::28                     0                       # What write queue length does an incoming req see
system.mem_ctrls0.wrQLenPdf::29                     0                       # What write queue length does an incoming req see
system.mem_ctrls0.wrQLenPdf::30                     0                       # What write queue length does an incoming req see
system.mem_ctrls0.wrQLenPdf::31                     0                       # What write queue length does an incoming req see
system.mem_ctrls0.wrQLenPdf::32                     0                       # What write queue length does an incoming req see
system.mem_ctrls0.wrQLenPdf::33                     0                       # What write queue length does an incoming req see
system.mem_ctrls0.wrQLenPdf::34                     0                       # What write queue length does an incoming req see
system.mem_ctrls0.wrQLenPdf::35                     0                       # What write queue length does an incoming req see
system.mem_ctrls0.wrQLenPdf::36                     0                       # What write queue length does an incoming req see
system.mem_ctrls0.wrQLenPdf::37                     0                       # What write queue length does an incoming req see
system.mem_ctrls0.wrQLenPdf::38                     0                       # What write queue length does an incoming req see
system.mem_ctrls0.wrQLenPdf::39                     0                       # What write queue length does an incoming req see
system.mem_ctrls0.wrQLenPdf::40                     0                       # What write queue length does an incoming req see
system.mem_ctrls0.wrQLenPdf::41                     0                       # What write queue length does an incoming req see
system.mem_ctrls0.wrQLenPdf::42                     0                       # What write queue length does an incoming req see
system.mem_ctrls0.wrQLenPdf::43                     0                       # What write queue length does an incoming req see
system.mem_ctrls0.wrQLenPdf::44                     0                       # What write queue length does an incoming req see
system.mem_ctrls0.wrQLenPdf::45                     0                       # What write queue length does an incoming req see
system.mem_ctrls0.wrQLenPdf::46                     0                       # What write queue length does an incoming req see
system.mem_ctrls0.wrQLenPdf::47                     0                       # What write queue length does an incoming req see
system.mem_ctrls0.wrQLenPdf::48                     0                       # What write queue length does an incoming req see
system.mem_ctrls0.wrQLenPdf::49                     0                       # What write queue length does an incoming req see
system.mem_ctrls0.wrQLenPdf::50                     0                       # What write queue length does an incoming req see
system.mem_ctrls0.wrQLenPdf::51                     0                       # What write queue length does an incoming req see
system.mem_ctrls0.wrQLenPdf::52                     0                       # What write queue length does an incoming req see
system.mem_ctrls0.wrQLenPdf::53                     0                       # What write queue length does an incoming req see
system.mem_ctrls0.wrQLenPdf::54                     0                       # What write queue length does an incoming req see
system.mem_ctrls0.wrQLenPdf::55                     0                       # What write queue length does an incoming req see
system.mem_ctrls0.wrQLenPdf::56                     0                       # What write queue length does an incoming req see
system.mem_ctrls0.wrQLenPdf::57                     0                       # What write queue length does an incoming req see
system.mem_ctrls0.wrQLenPdf::58                     0                       # What write queue length does an incoming req see
system.mem_ctrls0.wrQLenPdf::59                     0                       # What write queue length does an incoming req see
system.mem_ctrls0.wrQLenPdf::60                     0                       # What write queue length does an incoming req see
system.mem_ctrls0.wrQLenPdf::61                     0                       # What write queue length does an incoming req see
system.mem_ctrls0.wrQLenPdf::62                     0                       # What write queue length does an incoming req see
system.mem_ctrls0.wrQLenPdf::63                     0                       # What write queue length does an incoming req see
system.mem_ctrls0.wrQLenPdf::64                     0                       # What write queue length does an incoming req see
system.mem_ctrls0.wrQLenPdf::65                     0                       # What write queue length does an incoming req see
system.mem_ctrls0.wrQLenPdf::66                     0                       # What write queue length does an incoming req see
system.mem_ctrls0.wrQLenPdf::67                     0                       # What write queue length does an incoming req see
system.mem_ctrls0.wrQLenPdf::68                     0                       # What write queue length does an incoming req see
system.mem_ctrls0.wrQLenPdf::69                     0                       # What write queue length does an incoming req see
system.mem_ctrls0.wrQLenPdf::70                     0                       # What write queue length does an incoming req see
system.mem_ctrls0.wrQLenPdf::71                     0                       # What write queue length does an incoming req see
system.mem_ctrls0.wrQLenPdf::72                     0                       # What write queue length does an incoming req see
system.mem_ctrls0.wrQLenPdf::73                     0                       # What write queue length does an incoming req see
system.mem_ctrls0.wrQLenPdf::74                     0                       # What write queue length does an incoming req see
system.mem_ctrls0.wrQLenPdf::75                     0                       # What write queue length does an incoming req see
system.mem_ctrls0.wrQLenPdf::76                     0                       # What write queue length does an incoming req see
system.mem_ctrls0.wrQLenPdf::77                     0                       # What write queue length does an incoming req see
system.mem_ctrls0.wrQLenPdf::78                     0                       # What write queue length does an incoming req see
system.mem_ctrls0.wrQLenPdf::79                     0                       # What write queue length does an incoming req see
system.mem_ctrls0.wrQLenPdf::80                     0                       # What write queue length does an incoming req see
system.mem_ctrls0.wrQLenPdf::81                     0                       # What write queue length does an incoming req see
system.mem_ctrls0.wrQLenPdf::82                     0                       # What write queue length does an incoming req see
system.mem_ctrls0.wrQLenPdf::83                     0                       # What write queue length does an incoming req see
system.mem_ctrls0.wrQLenPdf::84                     0                       # What write queue length does an incoming req see
system.mem_ctrls0.wrQLenPdf::85                     0                       # What write queue length does an incoming req see
system.mem_ctrls0.wrQLenPdf::86                     0                       # What write queue length does an incoming req see
system.mem_ctrls0.wrQLenPdf::87                     0                       # What write queue length does an incoming req see
system.mem_ctrls0.wrQLenPdf::88                     0                       # What write queue length does an incoming req see
system.mem_ctrls0.wrQLenPdf::89                     0                       # What write queue length does an incoming req see
system.mem_ctrls0.wrQLenPdf::90                     0                       # What write queue length does an incoming req see
system.mem_ctrls0.wrQLenPdf::91                     0                       # What write queue length does an incoming req see
system.mem_ctrls0.wrQLenPdf::92                     0                       # What write queue length does an incoming req see
system.mem_ctrls0.wrQLenPdf::93                     0                       # What write queue length does an incoming req see
system.mem_ctrls0.wrQLenPdf::94                     0                       # What write queue length does an incoming req see
system.mem_ctrls0.wrQLenPdf::95                     0                       # What write queue length does an incoming req see
system.mem_ctrls0.wrQLenPdf::96                     0                       # What write queue length does an incoming req see
system.mem_ctrls0.wrQLenPdf::97                     0                       # What write queue length does an incoming req see
system.mem_ctrls0.wrQLenPdf::98                     0                       # What write queue length does an incoming req see
system.mem_ctrls0.wrQLenPdf::99                     0                       # What write queue length does an incoming req see
system.mem_ctrls0.wrQLenPdf::100                    0                       # What write queue length does an incoming req see
system.mem_ctrls0.wrQLenPdf::101                    0                       # What write queue length does an incoming req see
system.mem_ctrls0.wrQLenPdf::102                    0                       # What write queue length does an incoming req see
system.mem_ctrls0.wrQLenPdf::103                    0                       # What write queue length does an incoming req see
system.mem_ctrls0.wrQLenPdf::104                    0                       # What write queue length does an incoming req see
system.mem_ctrls0.wrQLenPdf::105                    0                       # What write queue length does an incoming req see
system.mem_ctrls0.wrQLenPdf::106                    0                       # What write queue length does an incoming req see
system.mem_ctrls0.wrQLenPdf::107                    0                       # What write queue length does an incoming req see
system.mem_ctrls0.wrQLenPdf::108                    0                       # What write queue length does an incoming req see
system.mem_ctrls0.wrQLenPdf::109                    0                       # What write queue length does an incoming req see
system.mem_ctrls0.wrQLenPdf::110                    0                       # What write queue length does an incoming req see
system.mem_ctrls0.wrQLenPdf::111                    0                       # What write queue length does an incoming req see
system.mem_ctrls0.wrQLenPdf::112                    0                       # What write queue length does an incoming req see
system.mem_ctrls0.wrQLenPdf::113                    0                       # What write queue length does an incoming req see
system.mem_ctrls0.wrQLenPdf::114                    0                       # What write queue length does an incoming req see
system.mem_ctrls0.wrQLenPdf::115                    0                       # What write queue length does an incoming req see
system.mem_ctrls0.wrQLenPdf::116                    0                       # What write queue length does an incoming req see
system.mem_ctrls0.wrQLenPdf::117                    0                       # What write queue length does an incoming req see
system.mem_ctrls0.wrQLenPdf::118                    0                       # What write queue length does an incoming req see
system.mem_ctrls0.wrQLenPdf::119                    0                       # What write queue length does an incoming req see
system.mem_ctrls0.wrQLenPdf::120                    0                       # What write queue length does an incoming req see
system.mem_ctrls0.wrQLenPdf::121                    0                       # What write queue length does an incoming req see
system.mem_ctrls0.wrQLenPdf::122                    0                       # What write queue length does an incoming req see
system.mem_ctrls0.wrQLenPdf::123                    0                       # What write queue length does an incoming req see
system.mem_ctrls0.wrQLenPdf::124                    0                       # What write queue length does an incoming req see
system.mem_ctrls0.wrQLenPdf::125                    0                       # What write queue length does an incoming req see
system.mem_ctrls0.wrQLenPdf::126                    0                       # What write queue length does an incoming req see
system.mem_ctrls0.wrQLenPdf::127                    0                       # What write queue length does an incoming req see
system.mem_ctrls0.bytesPerActivate::samples          168                       # Bytes accessed per row activation
system.mem_ctrls0.bytesPerActivate::mean   264.761905                       # Bytes accessed per row activation
system.mem_ctrls0.bytesPerActivate::gmean   173.677083                       # Bytes accessed per row activation
system.mem_ctrls0.bytesPerActivate::stdev   266.783710                       # Bytes accessed per row activation
system.mem_ctrls0.bytesPerActivate::0-127           56     33.33%     33.33% # Bytes accessed per row activation
system.mem_ctrls0.bytesPerActivate::128-255           48     28.57%     61.90% # Bytes accessed per row activation
system.mem_ctrls0.bytesPerActivate::256-383           26     15.48%     77.38% # Bytes accessed per row activation
system.mem_ctrls0.bytesPerActivate::384-511           11      6.55%     83.93% # Bytes accessed per row activation
system.mem_ctrls0.bytesPerActivate::512-639            8      4.76%     88.69% # Bytes accessed per row activation
system.mem_ctrls0.bytesPerActivate::640-767            2      1.19%     89.88% # Bytes accessed per row activation
system.mem_ctrls0.bytesPerActivate::768-895            5      2.98%     92.86% # Bytes accessed per row activation
system.mem_ctrls0.bytesPerActivate::896-1023            4      2.38%     95.24% # Bytes accessed per row activation
system.mem_ctrls0.bytesPerActivate::1024-1151            8      4.76%    100.00% # Bytes accessed per row activation
system.mem_ctrls0.bytesPerActivate::total          168                       # Bytes accessed per row activation
system.mem_ctrls0.masterReadBytes::.cpu.inst        31040                       # Per-master bytes read from memory
system.mem_ctrls0.masterReadBytes::.cpu.data        14400                       # Per-master bytes read from memory
system.mem_ctrls0.masterReadRate::.cpu.inst 321908218.822919368744                       # Per-master bytes read from memory rate (Bytes/sec)
system.mem_ctrls0.masterReadRate::.cpu.data 149338864.402385264635                       # Per-master bytes read from memory rate (Bytes/sec)
system.mem_ctrls0.masterReadAccesses::.cpu.inst          485                       # Per-master read serviced memory accesses
system.mem_ctrls0.masterReadAccesses::.cpu.data          225                       # Per-master read serviced memory accesses
system.mem_ctrls0.masterReadTotalLat::.cpu.inst     16992451                       # Per-master read total memory access latency
system.mem_ctrls0.masterReadTotalLat::.cpu.data      7045338                       # Per-master read total memory access latency
system.mem_ctrls0.masterReadAvgLat::.cpu.inst     35035.98                       # Per-master read average memory access latency
system.mem_ctrls0.masterReadAvgLat::.cpu.data     31312.61                       # Per-master read average memory access latency
system.mem_ctrls0.totQLat                    11618469                       # Total ticks spent queuing
system.mem_ctrls0.totMemAccLat               24037789                       # Total ticks spent from burst creation until serviced by the DRAM
system.mem_ctrls0.totBusLat                   2365720                       # Total ticks spent in databus transfers
system.mem_ctrls0.avgQLat                    16364.04                       # Average queueing delay per DRAM burst
system.mem_ctrls0.avgBusLat                   3332.00                       # Average bus latency per DRAM burst
system.mem_ctrls0.avgMemAccLat               33856.04                       # Average memory access latency per DRAM burst
system.mem_ctrls0.avgRdBW                      471.25                       # Average DRAM read bandwidth in MiByte/s
system.mem_ctrls0.avgWrBW                        0.00                       # Average achieved write bandwidth in MiByte/s
system.mem_ctrls0.avgRdBWSys                   471.25                       # Average system read bandwidth in MiByte/s
system.mem_ctrls0.avgWrBWSys                     0.00                       # Average system write bandwidth in MiByte/s
system.mem_ctrls0.peakBW                     19207.00                       # Theoretical peak bandwidth in MiByte/s
system.mem_ctrls0.busUtil                        2.45                       # Data bus utilization in percentage
system.mem_ctrls0.busUtilRead                    2.45                       # Data bus utilization in percentage for reads
system.mem_ctrls0.busUtilWrite                   0.00                       # Data bus utilization in percentage for writes
system.mem_ctrls0.avgRdQLen                      1.23                       # Average read queue length when enqueuing
system.mem_ctrls0.avgWrQLen                      0.00                       # Average write queue length when enqueuing
system.mem_ctrls0.readRowHits                     535                       # Number of row buffer hits during reads
system.mem_ctrls0.writeRowHits                      0                       # Number of row buffer hits during writes
system.mem_ctrls0.readRowHitRate                75.35                       # Row buffer hit rate for reads
system.mem_ctrls0.writeRowHitRate                 nan                       # Row buffer hit rate for writes
system.mem_ctrls0.avgGap                    135666.90                       # Average gap between requests
system.mem_ctrls0.pageHitRate                   75.35                       # Row buffer hit rate, read and write combined
system.mem_ctrls0_0.actEnergy            314993.952000                       # Energy for activate commands per rank (pJ)
system.mem_ctrls0_0.preEnergy            398048.716800                       # Energy for precharge commands per rank (pJ)
system.mem_ctrls0_0.readEnergy           1707764.620800                       # Energy for read commands per rank (pJ)
system.mem_ctrls0_0.writeEnergy                     0                       # Energy for write commands per rank (pJ)
system.mem_ctrls0_0.refreshEnergy        16624531.526400                       # Energy for refresh commands per rank (pJ)
system.mem_ctrls0_0.actBackEnergy        12864875.990400                       # Energy for active background per rank (pJ)
system.mem_ctrls0_0.preBackEnergy        272434.982400                       # Energy for precharge background per rank (pJ)
system.mem_ctrls0_0.actPowerDownEnergy   47386093.977600                       # Energy for active power-down per rank (pJ)
system.mem_ctrls0_0.prePowerDownEnergy   1795281.600000                       # Energy for precharge power-down per rank (pJ)
system.mem_ctrls0_0.selfRefreshEnergy               0                       # Energy for self refresh per rank (pJ)
system.mem_ctrls0_0.totalEnergy          81364025.366400                       # Total energy per rank (pJ)
system.mem_ctrls0_0.averagePower           843.806330                       # Core power per rank (mW)
system.mem_ctrls0_0.totalIdleTime            80819782                       # Total Idle time Per DRAM Rank
system.mem_ctrls0_0.memoryStateTime::IDLE        83500                       # Time in different power states
system.mem_ctrls0_0.memoryStateTime::REF      4200000                       # Time in different power states
system.mem_ctrls0_0.memoryStateTime::SREF            0                       # Time in different power states
system.mem_ctrls0_0.memoryStateTime::PRE_PDN      3740465                       # Time in different power states
system.mem_ctrls0_0.memoryStateTime::ACT     11269370                       # Time in different power states
system.mem_ctrls0_0.memoryStateTime::ACT_PDN     77131665                       # Time in different power states
system.mem_ctrls0_1.actEnergy            230787.648000                       # Energy for activate commands per rank (pJ)
system.mem_ctrls0_1.preEnergy            298536.537600                       # Energy for precharge commands per rank (pJ)
system.mem_ctrls0_1.readEnergy           1278720.307200                       # Energy for read commands per rank (pJ)
system.mem_ctrls0_1.writeEnergy                     0                       # Energy for write commands per rank (pJ)
system.mem_ctrls0_1.refreshEnergy        16624531.526400                       # Energy for refresh commands per rank (pJ)
system.mem_ctrls0_1.actBackEnergy        10434576.499200                       # Energy for active background per rank (pJ)
system.mem_ctrls0_1.preBackEnergy        603054.681600                       # Energy for precharge background per rank (pJ)
system.mem_ctrls0_1.actPowerDownEnergy   44702751.744000                       # Energy for active power-down per rank (pJ)
system.mem_ctrls0_1.prePowerDownEnergy   5021590.560000                       # Energy for precharge power-down per rank (pJ)
system.mem_ctrls0_1.selfRefreshEnergy               0                       # Energy for self refresh per rank (pJ)
system.mem_ctrls0_1.totalEnergy          79194549.504000                       # Total energy per rank (pJ)
system.mem_ctrls0_1.averagePower           821.307228                       # Core power per rank (mW)
system.mem_ctrls0_1.totalIdleTime            82700388                       # Total Idle time Per DRAM Rank
system.mem_ctrls0_1.memoryStateTime::IDLE       534500                       # Time in different power states
system.mem_ctrls0_1.memoryStateTime::REF      4200000                       # Time in different power states
system.mem_ctrls0_1.memoryStateTime::SREF            0                       # Time in different power states
system.mem_ctrls0_1.memoryStateTime::PRE_PDN     10460658                       # Time in different power states
system.mem_ctrls0_1.memoryStateTime::ACT      8475104                       # Time in different power states
system.mem_ctrls0_1.memoryStateTime::ACT_PDN     72754738                       # Time in different power states
system.mem_ctrls1.pwrStateResidencyTicks::UNDEFINED     96425000                       # Cumulative time (in ticks) in various power states
system.mem_ctrls1.bytes_read::.cpu.inst         31232                       # Number of bytes read from this memory
system.mem_ctrls1.bytes_read::.cpu.data         14848                       # Number of bytes read from this memory
system.mem_ctrls1.bytes_read::total             46080                       # Number of bytes read from this memory
system.mem_ctrls1.bytes_inst_read::.cpu.inst        31232                       # Number of instructions bytes read from this memory
system.mem_ctrls1.bytes_inst_read::total        31232                       # Number of instructions bytes read from this memory
system.mem_ctrls1.num_reads::.cpu.inst            488                       # Number of read requests responded to by this memory
system.mem_ctrls1.num_reads::.cpu.data            232                       # Number of read requests responded to by this memory
system.mem_ctrls1.num_reads::total                720                       # Number of read requests responded to by this memory
system.mem_ctrls1.bw_read::.cpu.inst        323899404                       # Total read bandwidth from this memory (bytes/s)
system.mem_ctrls1.bw_read::.cpu.data        153984962                       # Total read bandwidth from this memory (bytes/s)
system.mem_ctrls1.bw_read::total            477884366                       # Total read bandwidth from this memory (bytes/s)
system.mem_ctrls1.bw_inst_read::.cpu.inst    323899404                       # Instruction read bandwidth from this memory (bytes/s)
system.mem_ctrls1.bw_inst_read::total       323899404                       # Instruction read bandwidth from this memory (bytes/s)
system.mem_ctrls1.bw_total::.cpu.inst       323899404                       # Total bandwidth to/from this memory (bytes/s)
system.mem_ctrls1.bw_total::.cpu.data       153984962                       # Total bandwidth to/from this memory (bytes/s)
system.mem_ctrls1.bw_total::total           477884366                       # Total bandwidth to/from this memory (bytes/s)
system.mem_ctrls1.avgPriority_.cpu.inst::samples       488.00                       # Average QoS priority value for accepted requests
system.mem_ctrls1.avgPriority_.cpu.data::samples       232.00                       # Average QoS priority value for accepted requests
system.mem_ctrls1.priorityMinLatency     0.000000017492                       # per QoS priority minimum request to response latency (s)
system.mem_ctrls1.priorityMaxLatency     0.000000790292                       # per QoS priority maximum request to response latency (s)
system.mem_ctrls1.numReadWriteTurnArounds            0                       # Number of turnarounds from READ to WRITE
system.mem_ctrls1.numWriteReadTurnArounds            0                       # Number of turnarounds from WRITE to READ
system.mem_ctrls1.numStayReadState               1460                       # Number of times bus staying in READ state
system.mem_ctrls1.numStayWriteState                 0                       # Number of times bus staying in WRITE state
system.mem_ctrls1.readReqs                        720                       # Number of read requests accepted
system.mem_ctrls1.writeReqs                         0                       # Number of write requests accepted
system.mem_ctrls1.readBursts                      720                       # Number of DRAM read bursts, including those serviced by the write queue
system.mem_ctrls1.writeBursts                       0                       # Number of DRAM write bursts, including those merged in the write queue
system.mem_ctrls1.bytesReadDRAM                 46080                       # Total number of bytes read from DRAM
system.mem_ctrls1.bytesReadWrQ                      0                       # Total number of bytes read from write queue
system.mem_ctrls1.bytesWritten                      0                       # Total number of bytes written to DRAM
system.mem_ctrls1.bytesReadSys                  46080                       # Total read bytes from the system interface side
system.mem_ctrls1.bytesWrittenSys                   0                       # Total written bytes from the system interface side
system.mem_ctrls1.servicedByWrQ                     0                       # Number of DRAM read bursts serviced by the write queue
system.mem_ctrls1.mergedWrBursts                    0                       # Number of DRAM write bursts merged with an existing one
system.mem_ctrls1.neitherReadNorWriteReqs            0                       # Number of requests that are neither read nor write
system.mem_ctrls1.perBankRdBursts::0               61                       # Per bank write bursts
system.mem_ctrls1.perBankRdBursts::1               27                       # Per bank write bursts
system.mem_ctrls1.perBankRdBursts::2                9                       # Per bank write bursts
system.mem_ctrls1.perBankRdBursts::3                2                       # Per bank write bursts
system.mem_ctrls1.perBankRdBursts::4               10                       # Per bank write bursts
system.mem_ctrls1.perBankRdBursts::5               34                       # Per bank write bursts
system.mem_ctrls1.perBankRdBursts::6               31                       # Per bank write bursts
system.mem_ctrls1.perBankRdBursts::7               10                       # Per bank write bursts
system.mem_ctrls1.perBankRdBursts::8                3                       # Per bank write bursts
system.mem_ctrls1.perBankRdBursts::9                0                       # Per bank write bursts
system.mem_ctrls1.perBankRdBursts::10              12                       # Per bank write bursts
system.mem_ctrls1.perBankRdBursts::11               4                       # Per bank write bursts
system.mem_ctrls1.perBankRdBursts::12              10                       # Per bank write bursts
system.mem_ctrls1.perBankRdBursts::13              15                       # Per bank write bursts
system.mem_ctrls1.perBankRdBursts::14              74                       # Per bank write bursts
system.mem_ctrls1.perBankRdBursts::15             110                       # Per bank write bursts
system.mem_ctrls1.perBankRdBursts::16              54                       # Per bank write bursts
system.mem_ctrls1.perBankRdBursts::17              57                       # Per bank write bursts
system.mem_ctrls1.perBankRdBursts::18              86                       # Per bank write bursts
system.mem_ctrls1.perBankRdBursts::19              43                       # Per bank write bursts
system.mem_ctrls1.perBankRdBursts::20              28                       # Per bank write bursts
system.mem_ctrls1.perBankRdBursts::21               3                       # Per bank write bursts
system.mem_ctrls1.perBankRdBursts::22               1                       # Per bank write bursts
system.mem_ctrls1.perBankRdBursts::23               6                       # Per bank write bursts
system.mem_ctrls1.perBankRdBursts::24               4                       # Per bank write bursts
system.mem_ctrls1.perBankRdBursts::25               3                       # Per bank write bursts
system.mem_ctrls1.perBankRdBursts::26               6                       # Per bank write bursts
system.mem_ctrls1.perBankRdBursts::27               6                       # Per bank write bursts
system.mem_ctrls1.perBankRdBursts::28               2                       # Per bank write bursts
system.mem_ctrls1.perBankRdBursts::29               0                       # Per bank write bursts
system.mem_ctrls1.perBankRdBursts::30               7                       # Per bank write bursts
system.mem_ctrls1.perBankRdBursts::31               2                       # Per bank write bursts
system.mem_ctrls1.perBankWrBursts::0                0                       # Per bank write bursts
system.mem_ctrls1.perBankWrBursts::1                0                       # Per bank write bursts
system.mem_ctrls1.perBankWrBursts::2                0                       # Per bank write bursts
system.mem_ctrls1.perBankWrBursts::3                0                       # Per bank write bursts
system.mem_ctrls1.perBankWrBursts::4                0                       # Per bank write bursts
system.mem_ctrls1.perBankWrBursts::5                0                       # Per bank write bursts
system.mem_ctrls1.perBankWrBursts::6                0                       # Per bank write bursts
system.mem_ctrls1.perBankWrBursts::7                0                       # Per bank write bursts
system.mem_ctrls1.perBankWrBursts::8                0                       # Per bank write bursts
system.mem_ctrls1.perBankWrBursts::9                0                       # Per bank write bursts
system.mem_ctrls1.perBankWrBursts::10               0                       # Per bank write bursts
system.mem_ctrls1.perBankWrBursts::11               0                       # Per bank write bursts
system.mem_ctrls1.perBankWrBursts::12               0                       # Per bank write bursts
system.mem_ctrls1.perBankWrBursts::13               0                       # Per bank write bursts
system.mem_ctrls1.perBankWrBursts::14               0                       # Per bank write bursts
system.mem_ctrls1.perBankWrBursts::15               0                       # Per bank write bursts
system.mem_ctrls1.perBankWrBursts::16               0                       # Per bank write bursts
system.mem_ctrls1.perBankWrBursts::17               0                       # Per bank write bursts
system.mem_ctrls1.perBankWrBursts::18               0                       # Per bank write bursts
system.mem_ctrls1.perBankWrBursts::19               0                       # Per bank write bursts
system.mem_ctrls1.perBankWrBursts::20               0                       # Per bank write bursts
system.mem_ctrls1.perBankWrBursts::21               0                       # Per bank write bursts
system.mem_ctrls1.perBankWrBursts::22               0                       # Per bank write bursts
system.mem_ctrls1.perBankWrBursts::23               0                       # Per bank write bursts
system.mem_ctrls1.perBankWrBursts::24               0                       # Per bank write bursts
system.mem_ctrls1.perBankWrBursts::25               0                       # Per bank write bursts
system.mem_ctrls1.perBankWrBursts::26               0                       # Per bank write bursts
system.mem_ctrls1.perBankWrBursts::27               0                       # Per bank write bursts
system.mem_ctrls1.perBankWrBursts::28               0                       # Per bank write bursts
system.mem_ctrls1.perBankWrBursts::29               0                       # Per bank write bursts
system.mem_ctrls1.perBankWrBursts::30               0                       # Per bank write bursts
system.mem_ctrls1.perBankWrBursts::31               0                       # Per bank write bursts
system.mem_ctrls1.numRdRetry                        0                       # Number of times read queue was full causing retry
system.mem_ctrls1.numWrRetry                        0                       # Number of times write queue was full causing retry
system.mem_ctrls1.totGap                     96028500                       # Total gap between requests
system.mem_ctrls1.readPktSize::0                    0                       # Read request sizes (log2)
system.mem_ctrls1.readPktSize::1                    0                       # Read request sizes (log2)
system.mem_ctrls1.readPktSize::2                    0                       # Read request sizes (log2)
system.mem_ctrls1.readPktSize::3                    0                       # Read request sizes (log2)
system.mem_ctrls1.readPktSize::4                    0                       # Read request sizes (log2)
system.mem_ctrls1.readPktSize::5                    0                       # Read request sizes (log2)
system.mem_ctrls1.readPktSize::6                  720                       # Read request sizes (log2)
system.mem_ctrls1.writePktSize::0                   0                       # Write request sizes (log2)
system.mem_ctrls1.writePktSize::1                   0                       # Write request sizes (log2)
system.mem_ctrls1.writePktSize::2                   0                       # Write request sizes (log2)
system.mem_ctrls1.writePktSize::3                   0                       # Write request sizes (log2)
system.mem_ctrls1.writePktSize::4                   0                       # Write request sizes (log2)
system.mem_ctrls1.writePktSize::5                   0                       # Write request sizes (log2)
system.mem_ctrls1.writePktSize::6                   0                       # Write request sizes (log2)
system.mem_ctrls1.rdQLenPdf::0                    576                       # What read queue length does an incoming req see
system.mem_ctrls1.rdQLenPdf::1                    131                       # What read queue length does an incoming req see
system.mem_ctrls1.rdQLenPdf::2                     13                       # What read queue length does an incoming req see
system.mem_ctrls1.rdQLenPdf::3                      0                       # What read queue length does an incoming req see
system.mem_ctrls1.rdQLenPdf::4                      0                       # What read queue length does an incoming req see
system.mem_ctrls1.rdQLenPdf::5                      0                       # What read queue length does an incoming req see
system.mem_ctrls1.rdQLenPdf::6                      0                       # What read queue length does an incoming req see
system.mem_ctrls1.rdQLenPdf::7                      0                       # What read queue length does an incoming req see
system.mem_ctrls1.rdQLenPdf::8                      0                       # What read queue length does an incoming req see
system.mem_ctrls1.rdQLenPdf::9                      0                       # What read queue length does an incoming req see
system.mem_ctrls1.rdQLenPdf::10                     0                       # What read queue length does an incoming req see
system.mem_ctrls1.rdQLenPdf::11                     0                       # What read queue length does an incoming req see
system.mem_ctrls1.rdQLenPdf::12                     0                       # What read queue length does an incoming req see
system.mem_ctrls1.rdQLenPdf::13                     0                       # What read queue length does an incoming req see
system.mem_ctrls1.rdQLenPdf::14                     0                       # What read queue length does an incoming req see
system.mem_ctrls1.rdQLenPdf::15                     0                       # What read queue length does an incoming req see
system.mem_ctrls1.rdQLenPdf::16                     0                       # What read queue length does an incoming req see
system.mem_ctrls1.rdQLenPdf::17                     0                       # What read queue length does an incoming req see
system.mem_ctrls1.rdQLenPdf::18                     0                       # What read queue length does an incoming req see
system.mem_ctrls1.rdQLenPdf::19                     0                       # What read queue length does an incoming req see
system.mem_ctrls1.rdQLenPdf::20                     0                       # What read queue length does an incoming req see
system.mem_ctrls1.rdQLenPdf::21                     0                       # What read queue length does an incoming req see
system.mem_ctrls1.rdQLenPdf::22                     0                       # What read queue length does an incoming req see
system.mem_ctrls1.rdQLenPdf::23                     0                       # What read queue length does an incoming req see
system.mem_ctrls1.rdQLenPdf::24                     0                       # What read queue length does an incoming req see
system.mem_ctrls1.rdQLenPdf::25                     0                       # What read queue length does an incoming req see
system.mem_ctrls1.rdQLenPdf::26                     0                       # What read queue length does an incoming req see
system.mem_ctrls1.rdQLenPdf::27                     0                       # What read queue length does an incoming req see
system.mem_ctrls1.rdQLenPdf::28                     0                       # What read queue length does an incoming req see
system.mem_ctrls1.rdQLenPdf::29                     0                       # What read queue length does an incoming req see
system.mem_ctrls1.rdQLenPdf::30                     0                       # What read queue length does an incoming req see
system.mem_ctrls1.rdQLenPdf::31                     0                       # What read queue length does an incoming req see
system.mem_ctrls1.rdQLenPdf::32                     0                       # What read queue length does an incoming req see
system.mem_ctrls1.rdQLenPdf::33                     0                       # What read queue length does an incoming req see
system.mem_ctrls1.rdQLenPdf::34                     0                       # What read queue length does an incoming req see
system.mem_ctrls1.rdQLenPdf::35                     0                       # What read queue length does an incoming req see
system.mem_ctrls1.rdQLenPdf::36                     0                       # What read queue length does an incoming req see
system.mem_ctrls1.rdQLenPdf::37                     0                       # What read queue length does an incoming req see
system.mem_ctrls1.rdQLenPdf::38                     0                       # What read queue length does an incoming req see
system.mem_ctrls1.rdQLenPdf::39                     0                       # What read queue length does an incoming req see
system.mem_ctrls1.rdQLenPdf::40                     0                       # What read queue length does an incoming req see
system.mem_ctrls1.rdQLenPdf::41                     0                       # What read queue length does an incoming req see
system.mem_ctrls1.rdQLenPdf::42                     0                       # What read queue length does an incoming req see
system.mem_ctrls1.rdQLenPdf::43                     0                       # What read queue length does an incoming req see
system.mem_ctrls1.rdQLenPdf::44                     0                       # What read queue length does an incoming req see
system.mem_ctrls1.rdQLenPdf::45                     0                       # What read queue length does an incoming req see
system.mem_ctrls1.rdQLenPdf::46                     0                       # What read queue length does an incoming req see
system.mem_ctrls1.rdQLenPdf::47                     0                       # What read queue length does an incoming req see
system.mem_ctrls1.rdQLenPdf::48                     0                       # What read queue length does an incoming req see
system.mem_ctrls1.rdQLenPdf::49                     0                       # What read queue length does an incoming req see
system.mem_ctrls1.rdQLenPdf::50                     0                       # What read queue length does an incoming req see
system.mem_ctrls1.rdQLenPdf::51                     0                       # What read queue length does an incoming req see
system.mem_ctrls1.rdQLenPdf::52                     0                       # What read queue length does an incoming req see
system.mem_ctrls1.rdQLenPdf::53                     0                       # What read queue length does an incoming req see
system.mem_ctrls1.rdQLenPdf::54                     0                       # What read queue length does an incoming req see
system.mem_ctrls1.rdQLenPdf::55                     0                       # What read queue length does an incoming req see
system.mem_ctrls1.rdQLenPdf::56                     0                       # What read queue length does an incoming req see
system.mem_ctrls1.rdQLenPdf::57                     0                       # What read queue length does an incoming req see
system.mem_ctrls1.rdQLenPdf::58                     0                       # What read queue length does an incoming req see
system.mem_ctrls1.rdQLenPdf::59                     0                       # What read queue length does an incoming req see
system.mem_ctrls1.rdQLenPdf::60                     0                       # What read queue length does an incoming req see
system.mem_ctrls1.rdQLenPdf::61                     0                       # What read queue length does an incoming req see
system.mem_ctrls1.rdQLenPdf::62                     0                       # What read queue length does an incoming req see
system.mem_ctrls1.rdQLenPdf::63                     0                       # What read queue length does an incoming req see
system.mem_ctrls1.wrQLenPdf::0                      0                       # What write queue length does an incoming req see
system.mem_ctrls1.wrQLenPdf::1                      0                       # What write queue length does an incoming req see
system.mem_ctrls1.wrQLenPdf::2                      0                       # What write queue length does an incoming req see
system.mem_ctrls1.wrQLenPdf::3                      0                       # What write queue length does an incoming req see
system.mem_ctrls1.wrQLenPdf::4                      0                       # What write queue length does an incoming req see
system.mem_ctrls1.wrQLenPdf::5                      0                       # What write queue length does an incoming req see
system.mem_ctrls1.wrQLenPdf::6                      0                       # What write queue length does an incoming req see
system.mem_ctrls1.wrQLenPdf::7                      0                       # What write queue length does an incoming req see
system.mem_ctrls1.wrQLenPdf::8                      0                       # What write queue length does an incoming req see
system.mem_ctrls1.wrQLenPdf::9                      0                       # What write queue length does an incoming req see
system.mem_ctrls1.wrQLenPdf::10                     0                       # What write queue length does an incoming req see
system.mem_ctrls1.wrQLenPdf::11                     0                       # What write queue length does an incoming req see
system.mem_ctrls1.wrQLenPdf::12                     0                       # What write queue length does an incoming req see
system.mem_ctrls1.wrQLenPdf::13                     0                       # What write queue length does an incoming req see
system.mem_ctrls1.wrQLenPdf::14                     0                       # What write queue length does an incoming req see
system.mem_ctrls1.wrQLenPdf::15                     0                       # What write queue length does an incoming req see
system.mem_ctrls1.wrQLenPdf::16                     0                       # What write queue length does an incoming req see
system.mem_ctrls1.wrQLenPdf::17                     0                       # What write queue length does an incoming req see
system.mem_ctrls1.wrQLenPdf::18                     0                       # What write queue length does an incoming req see
system.mem_ctrls1.wrQLenPdf::19                     0                       # What write queue length does an incoming req see
system.mem_ctrls1.wrQLenPdf::20                     0                       # What write queue length does an incoming req see
system.mem_ctrls1.wrQLenPdf::21                     0                       # What write queue length does an incoming req see
system.mem_ctrls1.wrQLenPdf::22                     0                       # What write queue length does an incoming req see
system.mem_ctrls1.wrQLenPdf::23                     0                       # What write queue length does an incoming req see
system.mem_ctrls1.wrQLenPdf::24                     0                       # What write queue length does an incoming req see
system.mem_ctrls1.wrQLenPdf::25                     0                       # What write queue length does an incoming req see
system.mem_ctrls1.wrQLenPdf::26                     0                       # What write queue length does an incoming req see
system.mem_ctrls1.wrQLenPdf::27                     0                       # What write queue length does an incoming req see
system.mem_ctrls1.wrQLenPdf::28                     0                       # What write queue length does an incoming req see
system.mem_ctrls1.wrQLenPdf::29                     0                       # What write queue length does an incoming req see
system.mem_ctrls1.wrQLenPdf::30                     0                       # What write queue length does an incoming req see
system.mem_ctrls1.wrQLenPdf::31                     0                       # What write queue length does an incoming req see
system.mem_ctrls1.wrQLenPdf::32                     0                       # What write queue length does an incoming req see
system.mem_ctrls1.wrQLenPdf::33                     0                       # What write queue length does an incoming req see
system.mem_ctrls1.wrQLenPdf::34                     0                       # What write queue length does an incoming req see
system.mem_ctrls1.wrQLenPdf::35                     0                       # What write queue length does an incoming req see
system.mem_ctrls1.wrQLenPdf::36                     0                       # What write queue length does an incoming req see
system.mem_ctrls1.wrQLenPdf::37                     0                       # What write queue length does an incoming req see
system.mem_ctrls1.wrQLenPdf::38                     0                       # What write queue length does an incoming req see
system.mem_ctrls1.wrQLenPdf::39                     0                       # What write queue length does an incoming req see
system.mem_ctrls1.wrQLenPdf::40                     0                       # What write queue length does an incoming req see
system.mem_ctrls1.wrQLenPdf::41                     0                       # What write queue length does an incoming req see
system.mem_ctrls1.wrQLenPdf::42                     0                       # What write queue length does an incoming req see
system.mem_ctrls1.wrQLenPdf::43                     0                       # What write queue length does an incoming req see
system.mem_ctrls1.wrQLenPdf::44                     0                       # What write queue length does an incoming req see
system.mem_ctrls1.wrQLenPdf::45                     0                       # What write queue length does an incoming req see
system.mem_ctrls1.wrQLenPdf::46                     0                       # What write queue length does an incoming req see
system.mem_ctrls1.wrQLenPdf::47                     0                       # What write queue length does an incoming req see
system.mem_ctrls1.wrQLenPdf::48                     0                       # What write queue length does an incoming req see
system.mem_ctrls1.wrQLenPdf::49                     0                       # What write queue length does an incoming req see
system.mem_ctrls1.wrQLenPdf::50                     0                       # What write queue length does an incoming req see
system.mem_ctrls1.wrQLenPdf::51                     0                       # What write queue length does an incoming req see
system.mem_ctrls1.wrQLenPdf::52                     0                       # What write queue length does an incoming req see
system.mem_ctrls1.wrQLenPdf::53                     0                       # What write queue length does an incoming req see
system.mem_ctrls1.wrQLenPdf::54                     0                       # What write queue length does an incoming req see
system.mem_ctrls1.wrQLenPdf::55                     0                       # What write queue length does an incoming req see
system.mem_ctrls1.wrQLenPdf::56                     0                       # What write queue length does an incoming req see
system.mem_ctrls1.wrQLenPdf::57                     0                       # What write queue length does an incoming req see
system.mem_ctrls1.wrQLenPdf::58                     0                       # What write queue length does an incoming req see
system.mem_ctrls1.wrQLenPdf::59                     0                       # What write queue length does an incoming req see
system.mem_ctrls1.wrQLenPdf::60                     0                       # What write queue length does an incoming req see
system.mem_ctrls1.wrQLenPdf::61                     0                       # What write queue length does an incoming req see
system.mem_ctrls1.wrQLenPdf::62                     0                       # What write queue length does an incoming req see
system.mem_ctrls1.wrQLenPdf::63                     0                       # What write queue length does an incoming req see
system.mem_ctrls1.wrQLenPdf::64                     0                       # What write queue length does an incoming req see
system.mem_ctrls1.wrQLenPdf::65                     0                       # What write queue length does an incoming req see
system.mem_ctrls1.wrQLenPdf::66                     0                       # What write queue length does an incoming req see
system.mem_ctrls1.wrQLenPdf::67                     0                       # What write queue length does an incoming req see
system.mem_ctrls1.wrQLenPdf::68                     0                       # What write queue length does an incoming req see
system.mem_ctrls1.wrQLenPdf::69                     0                       # What write queue length does an incoming req see
system.mem_ctrls1.wrQLenPdf::70                     0                       # What write queue length does an incoming req see
system.mem_ctrls1.wrQLenPdf::71                     0                       # What write queue length does an incoming req see
system.mem_ctrls1.wrQLenPdf::72                     0                       # What write queue length does an incoming req see
system.mem_ctrls1.wrQLenPdf::73                     0                       # What write queue length does an incoming req see
system.mem_ctrls1.wrQLenPdf::74                     0                       # What write queue length does an incoming req see
system.mem_ctrls1.wrQLenPdf::75                     0                       # What write queue length does an incoming req see
system.mem_ctrls1.wrQLenPdf::76                     0                       # What write queue length does an incoming req see
system.mem_ctrls1.wrQLenPdf::77                     0                       # What write queue length does an incoming req see
system.mem_ctrls1.wrQLenPdf::78                     0                       # What write queue length does an incoming req see
system.mem_ctrls1.wrQLenPdf::79                     0                       # What write queue length does an incoming req see
system.mem_ctrls1.wrQLenPdf::80                     0                       # What write queue length does an incoming req see
[...]
system.l2.ReadSharedReq_accesses::total           203                       # number of ReadSharedReq accesses(hits+misses)
system.l2.demand_accesses::.cpu.inst             1053                       # number of demand (read+write) accesses
system.l2.demand_accesses::.cpu.data              464                       # number of demand (read+write) accesses
system.l2.demand_accesses::total                 1517                       # number of demand (read+write) accesses
system.l2.overall_accesses::.cpu.inst            1053                       # number of overall (read+write) accesses
system.l2.overall_accesses::.cpu.data             464                       # number of overall (read+write) accesses
system.l2.overall_accesses::total                1517                       # number of overall (read+write) accesses
system.l2.ReadExReq_miss_rate::.cpu.data            1                       # miss rate for ReadExReq accesses
system.l2.ReadExReq_miss_rate::total                1                       # miss rate for ReadExReq accesses
system.l2.ReadCleanReq_miss_rate::.cpu.inst     0.924976                       # miss rate for ReadCleanReq accesses
system.l2.ReadCleanReq_miss_rate::total      0.924976                       # miss rate for ReadCleanReq accesses
system.l2.ReadSharedReq_miss_rate::.cpu.data     0.965517                       # miss rate for ReadSharedReq accesses
system.l2.ReadSharedReq_miss_rate::total     0.965517                       # miss rate for ReadSharedReq accesses
system.l2.demand_miss_rate::.cpu.inst        0.924976                       # miss rate for demand accesses
system.l2.demand_miss_rate::.cpu.data        0.984914                       # miss rate for demand accesses
system.l2.demand_miss_rate::total            0.943309                       # miss rate for demand accesses
system.l2.overall_miss_rate::.cpu.inst       0.924976                       # miss rate for overall accesses
system.l2.overall_miss_rate::.cpu.data       0.984914                       # miss rate for overall accesses
system.l2.overall_miss_rate::total           0.943309                       # miss rate for overall accesses
system.l2.ReadExReq_avg_miss_latency::.cpu.data 82632.183908                       # average ReadExReq miss latency
system.l2.ReadExReq_avg_miss_latency::total 82632.183908                       # average ReadExReq miss latency
system.l2.ReadCleanReq_avg_miss_latency::.cpu.inst 84506.160164                       # average ReadCleanReq miss latency
system.l2.ReadCleanReq_avg_miss_latency::total 84506.160164                       # average ReadCleanReq miss latency
system.l2.ReadSharedReq_avg_miss_latency::.cpu.data 85627.551020                       # average ReadSharedReq miss latency
system.l2.ReadSharedReq_avg_miss_latency::total 85627.551020                       # average ReadSharedReq miss latency
system.l2.demand_avg_miss_latency::.cpu.inst 84506.160164                       # average overall miss latency
system.l2.demand_avg_miss_latency::.cpu.data 83916.849015                       # average overall miss latency
system.l2.demand_avg_miss_latency::total 84317.959469                       # average overall miss latency
system.l2.overall_avg_miss_latency::.cpu.inst 84506.160164                       # average overall miss latency
system.l2.overall_avg_miss_latency::.cpu.data 83916.849015                       # average overall miss latency
system.l2.overall_avg_miss_latency::total 84317.959469                       # average overall miss latency
system.l2.blocked_cycles::no_mshrs                  0                       # number of cycles access was blocked
system.l2.blocked_cycles::no_targets                0                       # number of cycles access was blocked
system.l2.blocked::no_mshrs                         0                       # number of cycles access was blocked
system.l2.blocked::no_targets                       0                       # number of cycles access was blocked
system.l2.avg_blocked_cycles::no_mshrs            nan                       # average number of cycles each access was blocked
system.l2.avg_blocked_cycles::no_targets          nan                       # average number of cycles each access was blocked
system.l2.ReadExReq_mshr_misses::.cpu.data          261                       # number of ReadExReq MSHR misses
system.l2.ReadExReq_mshr_misses::total            261                       # number of ReadExReq MSHR misses
system.l2.ReadCleanReq_mshr_misses::.cpu.inst          974                       # number of ReadCleanReq MSHR misses
system.l2.ReadCleanReq_mshr_misses::total          974                       # number of ReadCleanReq MSHR misses
system.l2.ReadSharedReq_mshr_misses::.cpu.data          196                       # number of ReadSharedReq MSHR misses
system.l2.ReadSharedReq_mshr_misses::total          196                       # number of ReadSharedReq MSHR misses
system.l2.demand_mshr_misses::.cpu.inst           974                       # number of demand (read+write) MSHR misses
system.l2.demand_mshr_misses::.cpu.data           457                       # number of demand (read+write) MSHR misses
system.l2.demand_mshr_misses::total              1431                       # number of demand (read+write) MSHR misses
system.l2.overall_mshr_misses::.cpu.inst          974                       # number of overall MSHR misses
system.l2.overall_mshr_misses::.cpu.data          457                       # number of overall MSHR misses
system.l2.overall_mshr_misses::total             1431                       # number of overall MSHR misses
system.l2.ReadExReq_mshr_miss_latency::.cpu.data     18957000                       # number of ReadExReq MSHR miss cycles
system.l2.ReadExReq_mshr_miss_latency::total     18957000                       # number of ReadExReq MSHR miss cycles
system.l2.ReadCleanReq_mshr_miss_latency::.cpu.inst     72579000                       # number of ReadCleanReq MSHR miss cycles
system.l2.ReadCleanReq_mshr_miss_latency::total     72579000                       # number of ReadCleanReq MSHR miss cycles
system.l2.ReadSharedReq_mshr_miss_latency::.cpu.data     14823000                       # number of ReadSharedReq MSHR miss cycles
system.l2.ReadSharedReq_mshr_miss_latency::total     14823000                       # number of ReadSharedReq MSHR miss cycles
system.l2.demand_mshr_miss_latency::.cpu.inst     72579000                       # number of demand (read+write) MSHR miss cycles
system.l2.demand_mshr_miss_latency::.cpu.data     33780000                       # number of demand (read+write) MSHR miss cycles
system.l2.demand_mshr_miss_latency::total    106359000                       # number of demand (read+write) MSHR miss cycles
system.l2.overall_mshr_miss_latency::.cpu.inst     72579000                       # number of overall MSHR miss cycles
system.l2.overall_mshr_miss_latency::.cpu.data     33780000                       # number of overall MSHR miss cycles
system.l2.overall_mshr_miss_latency::total    106359000                       # number of overall MSHR miss cycles
system.l2.ReadExReq_mshr_miss_rate::.cpu.data            1                       # mshr miss rate for ReadExReq accesses
system.l2.ReadExReq_mshr_miss_rate::total            1                       # mshr miss rate for ReadExReq accesses
system.l2.ReadCleanReq_mshr_miss_rate::.cpu.inst     0.924976                       # mshr miss rate for ReadCleanReq accesses
system.l2.ReadCleanReq_mshr_miss_rate::total     0.924976                       # mshr miss rate for ReadCleanReq accesses
system.l2.ReadSharedReq_mshr_miss_rate::.cpu.data     0.965517                       # mshr miss rate for ReadSharedReq accesses
system.l2.ReadSharedReq_mshr_miss_rate::total     0.965517                       # mshr miss rate for ReadSharedReq accesses
system.l2.demand_mshr_miss_rate::.cpu.inst     0.924976                       # mshr miss rate for demand accesses
system.l2.demand_mshr_miss_rate::.cpu.data     0.984914                       # mshr miss rate for demand accesses
system.l2.demand_mshr_miss_rate::total       0.943309                       # mshr miss rate for demand accesses
system.l2.overall_mshr_miss_rate::.cpu.inst     0.924976                       # mshr miss rate for overall accesses
system.l2.overall_mshr_miss_rate::.cpu.data     0.984914                       # mshr miss rate for overall accesses
system.l2.overall_mshr_miss_rate::total      0.943309                       # mshr miss rate for overall accesses
system.l2.ReadExReq_avg_mshr_miss_latency::.cpu.data 72632.183908                       # average ReadExReq mshr miss latency
system.l2.ReadExReq_avg_mshr_miss_latency::total 72632.183908                       # average ReadExReq mshr miss latency
system.l2.ReadCleanReq_avg_mshr_miss_latency::.cpu.inst 74516.427105                       # average ReadCleanReq mshr miss latency
system.l2.ReadCleanReq_avg_mshr_miss_latency::total 74516.427105                       # average ReadCleanReq mshr miss latency
system.l2.ReadSharedReq_avg_mshr_miss_latency::.cpu.data 75627.551020                       # average ReadSharedReq mshr miss latency
system.l2.ReadSharedReq_avg_mshr_miss_latency::total 75627.551020                       # average ReadSharedReq mshr miss latency
system.l2.demand_avg_mshr_miss_latency::.cpu.inst 74516.427105                       # average overall mshr miss latency
system.l2.demand_avg_mshr_miss_latency::.cpu.data 73916.849015                       # average overall mshr miss latency
system.l2.demand_avg_mshr_miss_latency::total 74324.947589                       # average overall mshr miss latency
system.l2.overall_avg_mshr_miss_latency::.cpu.inst 74516.427105                       # average overall mshr miss latency
system.l2.overall_avg_mshr_miss_latency::.cpu.data 73916.849015                       # average overall mshr miss latency
system.l2.overall_avg_mshr_miss_latency::total 74324.947589                       # average overall mshr miss latency
system.l2.replacements                              0                       # number of replacements
system.membus.snoop_filter.tot_requests          1430                       # Total number of requests made to the snoop filter.
system.membus.snoop_filter.hit_single_requests            0                       # Number of requests hitting in the snoop filter with a single holder of the requested data.
system.membus.snoop_filter.hit_multi_requests            0                       # Number of requests hitting in the snoop filter with multiple (>1) holders of the requested data.
system.membus.snoop_filter.tot_snoops               0                       # Total number of snoops made to the snoop filter.
system.membus.snoop_filter.hit_single_snoops            0                       # Number of snoops hitting in the snoop filter with a single holder of the requested data.
system.membus.snoop_filter.hit_multi_snoops            0                       # Number of snoops hitting in the snoop filter with multiple (>1) holders of the requested data.
system.membus.pwrStateResidencyTicks::UNDEFINED     96425000                       # Cumulative time (in ticks) in various power states
system.membus.trans_dist::ReadResp               1169                       # Transaction distribution
system.membus.trans_dist::ReadExReq               261                       # Transaction distribution
system.membus.trans_dist::ReadExResp              261                       # Transaction distribution
system.membus.trans_dist::ReadSharedReq          1169                       # Transaction distribution
system.membus.pkt_count_system.l2.mem_side::system.mem_ctrls0.port         1420                       # Packet count per connected master and slave (bytes)
system.membus.pkt_count_system.l2.mem_side::system.mem_ctrls1.port         1440                       # Packet count per connected master and slave (bytes)
system.membus.pkt_count_system.l2.mem_side::total         2860                       # Packet count per connected master and slave (bytes)
system.membus.pkt_count::total                   2860                       # Packet count per connected master and slave (bytes)
system.membus.pkt_size_system.l2.mem_side::system.mem_ctrls0.port        45440                       # Cumulative packet size per connected master and slave (bytes)
system.membus.pkt_size_system.l2.mem_side::system.mem_ctrls1.port        46080                       # Cumulative packet size per connected master and slave (bytes)
system.membus.pkt_size_system.l2.mem_side::total        91520                       # Cumulative packet size per connected master and slave (bytes)
system.membus.pkt_size::total                   91520                       # Cumulative packet size per connected master and slave (bytes)
system.membus.snoops                                0                       # Total snoops (count)
system.membus.snoopTraffic                          0                       # Total snoop traffic (bytes)
system.membus.snoop_fanout::samples              1430                       # Request fanout histogram
system.membus.snoop_fanout::mean                    0                       # Request fanout histogram
system.membus.snoop_fanout::stdev                   0                       # Request fanout histogram
system.membus.snoop_fanout::underflows              0      0.00%      0.00% # Request fanout histogram
system.membus.snoop_fanout::0                    1430    100.00%    100.00% # Request fanout histogram
system.membus.snoop_fanout::1                       0      0.00%    100.00% # Request fanout histogram
system.membus.snoop_fanout::overflows               0      0.00%    100.00% # Request fanout histogram
system.membus.snoop_fanout::min_value               0                       # Request fanout histogram
system.membus.snoop_fanout::max_value               0                       # Request fanout histogram
system.membus.snoop_fanout::total                1430                       # Request fanout histogram
system.membus.reqLayer2.occupancy              861500                       # Layer occupancy (ticks)
system.membus.reqLayer2.utilization               0.9                       # Layer utilization (%)
system.membus.reqLayer3.occupancy              892000                       # Layer occupancy (ticks)
system.membus.reqLayer3.utilization               0.9                       # Layer utilization (%)
system.membus.respLayer1.occupancy            7688424                       # Layer occupancy (ticks)
system.membus.respLayer1.utilization              8.0                       # Layer utilization (%)
system.tol2bus.snoop_filter.tot_requests         2098                       # Total number of requests made to the snoop filter.
system.tol2bus.snoop_filter.hit_single_requests          583                       # Number of requests hitting in the snoop filter with a single holder of the requested data.
system.tol2bus.snoop_filter.hit_multi_requests            3                       # Number of requests hitting in the snoop filter with multiple (>1) holders of the requested data.
system.tol2bus.snoop_filter.tot_snoops              0                       # Total number of snoops made to the snoop filter.
system.tol2bus.snoop_filter.hit_single_snoops            0                       # Number of snoops hitting in the snoop filter with a single holder of the requested data.
system.tol2bus.snoop_filter.hit_multi_snoops            0                       # Number of snoops hitting in the snoop filter with multiple (>1) holders of the requested data.
system.tol2bus.pwrStateResidencyTicks::UNDEFINED     96425000                       # Cumulative time (in ticks) in various power states
system.tol2bus.trans_dist::ReadResp              1257                       # Transaction distribution
system.tol2bus.trans_dist::WritebackDirty            3                       # Transaction distribution
system.tol2bus.trans_dist::WritebackClean          562                       # Transaction distribution
system.tol2bus.trans_dist::CleanEvict              12                       # Transaction distribution
system.tol2bus.trans_dist::UpgradeReq               2                       # Transaction distribution
system.tol2bus.trans_dist::UpgradeResp              2                       # Transaction distribution
system.tol2bus.trans_dist::ReadExReq              261                       # Transaction distribution
system.tol2bus.trans_dist::ReadExResp             261                       # Transaction distribution
system.tol2bus.trans_dist::ReadCleanReq          1055                       # Transaction distribution
system.tol2bus.trans_dist::ReadSharedReq          203                       # Transaction distribution
system.tol2bus.pkt_count_system.cpu.icache.mem_side::system.l2.cpu_side         2669                       # Packet count per connected master and slave (bytes)
system.tol2bus.pkt_count_system.cpu.dcache.mem_side::system.l2.cpu_side          947                       # Packet count per connected master and slave (bytes)
system.tol2bus.pkt_count::total                  3616                       # Packet count per connected master and slave (bytes)
system.tol2bus.pkt_size_system.cpu.icache.mem_side::system.l2.cpu_side       103296                       # Cumulative packet size per connected master and slave (bytes)
system.tol2bus.pkt_size_system.cpu.dcache.mem_side::system.l2.cpu_side        29888                       # Cumulative packet size per connected master and slave (bytes)
system.tol2bus.pkt_size::total                 133184                       # Cumulative packet size per connected master and slave (bytes)
system.tol2bus.snoops                               2                       # Total snoops (count)
system.tol2bus.snoopTraffic                       128                       # Total snoop traffic (bytes)
system.tol2bus.snoop_fanout::samples             1521                       # Request fanout histogram
system.tol2bus.snoop_fanout::mean            0.005917                       # Request fanout histogram
system.tol2bus.snoop_fanout::stdev           0.076720                       # Request fanout histogram
system.tol2bus.snoop_fanout::underflows             0      0.00%      0.00% # Request fanout histogram
system.tol2bus.snoop_fanout::0                   1512     99.41%     99.41% # Request fanout histogram
system.tol2bus.snoop_fanout::1                      9      0.59%    100.00% # Request fanout histogram
system.tol2bus.snoop_fanout::2                      0      0.00%    100.00% # Request fanout histogram
system.tol2bus.snoop_fanout::3                      0      0.00%    100.00% # Request fanout histogram
system.tol2bus.snoop_fanout::4                      0      0.00%    100.00% # Request fanout histogram
system.tol2bus.snoop_fanout::overflows              0      0.00%    100.00% # Request fanout histogram
system.tol2bus.snoop_fanout::min_value              0                       # Request fanout histogram
system.tol2bus.snoop_fanout::max_value              1                       # Request fanout histogram
system.tol2bus.snoop_fanout::total               1521                       # Request fanout histogram
system.tol2bus.reqLayer0.occupancy            1614000                       # Layer occupancy (ticks)
system.tol2bus.reqLayer0.utilization              1.7                       # Layer utilization (%)
system.tol2bus.respLayer0.occupancy           1581000                       # Layer occupancy (ticks)
system.tol2bus.respLayer0.utilization             1.6                       # Layer utilization (%)
system.tol2bus.respLayer1.occupancy            697499                       # Layer occupancy (ticks)
system.tol2bus.respLayer1.utilization             0.7                       # Layer utilization (%)

---------- End Simulation Statistics   ----------
